@<TRIPOS>MOLECULE
*****
   61    65     1     0     0
SMALL
bcc


@<TRIPOS>ATOM
      1 C           10.7060     7.9580    -7.8070 c3         1 UNL      -0.116400
      2 C1          10.2100     6.5690    -7.9020 cc         1 UNL       0.311600
      3 C2          10.9050     5.3860    -7.7810 cd         1 UNL      -0.239600
      4 N            9.9900     4.3700    -7.9610 na         1 UNL      -0.152000
      5 C3          10.2410     2.9680    -7.9430 ca         1 UNL       0.054800
      6 C4          11.5520     2.4830    -8.0780 ca         1 UNL      -0.159000
      7 C5          11.8150     1.1060    -8.1120 ca         1 UNL       0.097600
      8 N1          13.1590     0.7170    -8.2850 n          1 UNL      -0.472100
      9 C6          14.2320     1.0070    -7.4600 c          1 UNL       0.687700
     10 O           14.2160     1.7490    -6.4850 o          1 UNL      -0.577100
     11 C7          15.5200     0.3450    -7.8240 ca         1 UNL      -0.155600
     12 C8          16.5440     0.3150    -6.8750 ca         1 UNL      -0.068000
     13 C9          17.7500    -0.3190    -7.1700 ca         1 UNL      -0.139000
     14 C10         17.9510    -0.9340    -8.4160 ca         1 UNL      -0.002300
     15 C11         19.2800    -1.5850    -8.6940 c3         1 UNL      -0.060800
     16 C12         16.9180    -0.9240    -9.3790 ca         1 UNL       0.100600
     17 N2          17.1170    -1.4900   -10.6450 nh         1 UNL      -0.703300
     18 C13         16.6330    -2.6620   -11.2210 ca         1 UNL       0.857900
     19 N3          15.8010    -2.4880   -12.2570 nb         1 UNL      -0.738000
     20 C14         15.2490    -3.5890   -12.7920 ca         1 UNL       0.463200
     21 C15         15.4860    -4.8570   -12.3260 ca         1 UNL      -0.403600
     22 C16         16.3490    -4.9610   -11.2560 cp         1 UNL       0.533800
     23 C17         16.6920    -6.2400   -10.6050 cp         1 UNL      -0.278800
     24 C18         17.3710    -7.2850   -11.2500 ca         1 UNL      -0.071000
     25 C19         17.6550    -8.4750   -10.5740 ca         1 UNL      -0.252300
     26 C20         17.2670    -8.5900    -9.2510 ca         1 UNL       0.409200
     27 N4          16.6290    -7.6130    -8.5790 nb         1 UNL      -0.668000
     28 C21         16.3460    -6.4820    -9.2730 ca         1 UNL       0.438200
     29 N5          16.9320    -3.8670   -10.7110 nb         1 UNL      -0.731000
     30 C22         15.7120    -0.2840    -9.0600 ca         1 UNL      -0.119000
     31 C23         10.7560     0.2100    -7.9950 ca         1 UNL      -0.159000
     32 C24          9.4400     0.6690    -7.8290 ca         1 UNL      -0.113300
     33 C25          8.3160    -0.3280    -7.7190 c3         1 UNL       0.686200
     34 F            8.1510    -1.0660    -8.8550 f          1 UNL      -0.233967
     35 F1           8.5130    -1.2320    -6.7200 f          1 UNL      -0.233967
     36 F2           7.1060     0.2460    -7.4780 f          1 UNL      -0.233967
     37 C26          9.1890     2.0520    -7.8090 ca         1 UNL      -0.143000
     38 C27          8.7870     5.0040    -8.1830 cd         1 UNL       0.409400
     39 N6           8.8890     6.3150    -8.1470 nc         1 UNL      -0.655000
     40 H           10.8070     8.2400    -6.7480 hc         1 UNL       0.049033
     41 H1          11.6860     8.0320    -8.3010 hc         1 UNL       0.049033
     42 H2           9.9940     8.6360    -8.3010 hc         1 UNL       0.049033
     43 H3          11.9810     5.2740    -7.5800 h4         1 UNL       0.190000
     44 H4          12.3860     3.1950    -8.1580 ha         1 UNL       0.187000
     45 H5          13.3470     0.1750    -9.1180 hn         1 UNL       0.327500
     46 H6          16.3990     0.7920    -5.8940 ha         1 UNL       0.157000
     47 H7          18.5530    -0.3380    -6.4180 ha         1 UNL       0.146000
     48 H8          19.7760    -1.8280    -7.7420 hc         1 UNL       0.057700
     49 H9          19.1230    -2.5080    -9.2710 hc         1 UNL       0.057700
     50 H10         19.9130    -0.8950    -9.2710 hc         1 UNL       0.057700
     51 H11         17.5150    -0.9060   -11.3640 hn         1 UNL       0.435800
     52 H12         14.5710    -3.4670   -13.6490 h4         1 UNL       0.032100
     53 H13         15.0140    -5.7410   -12.7800 ha         1 UNL       0.158000
     54 H14         17.6830    -7.1670   -12.2980 ha         1 UNL       0.143000
     55 H15         18.1750    -9.3010   -11.0820 ha         1 UNL       0.148000
     56 H16         17.4910    -9.5270    -8.7210 h4         1 UNL       0.026100
     57 H17         15.7980    -5.6890    -8.7430 h4         1 UNL       0.039100
     58 H18         14.8970    -0.2760    -9.7990 ha         1 UNL       0.139000
     59 H19         10.9530    -0.8720    -8.0330 ha         1 UNL       0.154000
     60 H20          8.1590     2.4180    -7.6870 ha         1 UNL       0.161000
     61 H21          7.8430     4.4710    -8.3700 h5         1 UNL       0.065100
@<TRIPOS>BOND
     1     1     2 1   
     2     2     3 2   
     3     3     4 1   
     4     4     5 1   
     5     5     6 ar  
     6     6     7 ar  
     7     7     8 1   
     8     8     9 1   
     9     9    10 2   
    10     9    11 1   
    11    11    12 ar  
    12    12    13 ar  
    13    13    14 ar  
    14    14    15 1   
    15    14    16 ar  
    16    16    17 1   
    17    17    18 1   
    18    18    19 ar  
    19    19    20 ar  
    20    20    21 ar  
    21    21    22 ar  
    22    22    23 1   
    23    23    24 ar  
    24    24    25 ar  
    25    25    26 ar  
    26    26    27 ar  
    27    27    28 ar  
    28    22    29 ar  
    29    16    30 ar  
    30     7    31 ar  
    31    31    32 ar  
    32    32    33 1   
    33    33    34 1   
    34    33    35 1   
    35    33    36 1   
    36    32    37 ar  
    37     4    38 1   
    38    38    39 2   
    39    39     2 1   
    40    37     5 ar  
    41    30    11 ar  
    42    29    18 ar  
    43    28    23 ar  
    44     1    40 1   
    45     1    41 1   
    46     1    42 1   
    47     3    43 1   
    48     6    44 1   
    49     8    45 1   
    50    12    46 1   
    51    13    47 1   
    52    15    48 1   
    53    15    49 1   
    54    15    50 1   
    55    17    51 1   
    56    20    52 1   
    57    21    53 1   
    58    24    54 1   
    59    25    55 1   
    60    26    56 1   
    61    28    57 1   
    62    30    58 1   
    63    31    59 1   
    64    37    60 1   
    65    38    61 1   
@<TRIPOS>SUBSTRUCTURE
     1 UNL         1 TEMP              0 ****  ****    0 ROOT
