@<TRIPOS>MOLECULE
*****
 61 65 0 0 0
SMALL
GASTEIGER

@<TRIPOS>ATOM
      1 C          10.7060    7.9580   -7.8070 C.3     1  UNL1       -0.0209
      2 C          10.2100    6.5690   -7.9020 C.ar    1  UNL1        0.0563
      3 C          10.9050    5.3860   -7.7810 C.ar    1  UNL1        0.0322
      4 N           9.9900    4.3700   -7.9610 N.ar    1  UNL1       -0.3055
      5 C          10.2410    2.9680   -7.9430 C.ar    1  UNL1        0.0497
      6 C          11.5520    2.4830   -8.0780 C.ar    1  UNL1       -0.0165
      7 C          11.8150    1.1060   -8.1120 C.ar    1  UNL1        0.0362
      8 N          13.1590    0.7170   -8.2850 N.am    1  UNL1       -0.2814
      9 C          14.2320    1.0070   -7.4600 C.2     1  UNL1        0.2483
     10 O          14.2160    1.7490   -6.4850 O.2     1  UNL1       -0.2699
     11 C          15.5200    0.3450   -7.8240 C.ar    1  UNL1        0.0388
     12 C          16.5440    0.3150   -6.8750 C.ar    1  UNL1       -0.0493
     13 C          17.7500   -0.3190   -7.1700 C.ar    1  UNL1       -0.0564
     14 C          17.9510   -0.9340   -8.4160 C.ar    1  UNL1       -0.0292
     15 C          19.2800   -1.5850   -8.6940 C.3     1  UNL1       -0.0380
     16 C          16.9180   -0.9240   -9.3790 C.ar    1  UNL1        0.0372
     17 N          17.1170   -1.4900  -10.6450 N.pl3   1  UNL1       -0.2834
     18 C          16.6330   -2.6620  -11.2210 C.ar    1  UNL1        0.2200
     19 N          15.8010   -2.4880  -12.2570 N.ar    1  UNL1       -0.2226
     20 C          15.2490   -3.5890  -12.7920 C.ar    1  UNL1        0.0332
     21 C          15.4860   -4.8570  -12.3260 C.ar    1  UNL1       -0.0174
     22 C          16.3490   -4.9610  -11.2560 C.ar    1  UNL1        0.0775
     23 C          16.6920   -6.2400  -10.6050 C.ar    1  UNL1        0.0186
     24 C          17.3710   -7.2850  -11.2500 C.ar    1  UNL1       -0.0497
     25 C          17.6550   -8.4750  -10.5740 C.ar    1  UNL1       -0.0430
     26 C          17.2670   -8.5900   -9.2510 C.ar    1  UNL1        0.0276
     27 N          16.6290   -7.6130   -8.5790 N.ar    1  UNL1       -0.2626
     28 C          16.3460   -6.4820   -9.2730 C.ar    1  UNL1        0.0367
     29 N          16.9320   -3.8670  -10.7110 N.ar    1  UNL1       -0.2142
     30 C          15.7120   -0.2840   -9.0600 C.ar    1  UNL1       -0.0281
     31 C          10.7560    0.2100   -7.9950 C.ar    1  UNL1       -0.0287
     32 C           9.4400    0.6690   -7.8290 C.ar    1  UNL1        0.0585
     33 C           8.3160   -0.3280   -7.7190 C.3     1  UNL1        0.4175
     34 F           8.1510   -1.0660   -8.8550 F       1  UNL1       -0.1659
     35 F           8.5130   -1.2320   -6.7200 F       1  UNL1       -0.1659
     36 F           7.1060    0.2460   -7.4780 F       1  UNL1       -0.1659
     37 C           9.1890    2.0520   -7.8090 C.ar    1  UNL1       -0.0261
     38 C           8.7870    5.0040   -8.1830 C.ar    1  UNL1        0.1007
     39 N           8.8890    6.3150   -8.1470 N.ar    1  UNL1       -0.2406
     40 H          10.8066    8.2398   -6.7485 H       1  UNL1        0.0293
     41 H          11.6861    8.0319   -8.3009 H       1  UNL1        0.0293
     42 H           9.9944    8.6360   -8.3009 H       1  UNL1        0.0293
     43 H          11.9806    5.2735   -7.5799 H       1  UNL1        0.0831
     44 H          12.3865    3.1951   -8.1584 H       1  UNL1        0.0657
     45 H          13.3470    0.1750   -9.1180 H       1  UNL1        0.1551
     46 H          16.3990    0.7918   -5.8944 H       1  UNL1        0.0625
     47 H          18.5529   -0.3376   -6.4183 H       1  UNL1        0.0621
     48 H          19.7756   -1.8278   -7.7424 H       1  UNL1        0.0278
     49 H          19.1226   -2.5080   -9.2713 H       1  UNL1        0.0278
     50 H          19.9127   -0.8948   -9.2713 H       1  UNL1        0.0278
     51 H          17.5150   -0.9060  -11.3640 H       1  UNL1        0.1550
     52 H          14.5708   -3.4675  -13.6495 H       1  UNL1        0.0831
     53 H          15.0142   -5.7408  -12.7803 H       1  UNL1        0.0654
     54 H          17.6829   -7.1665  -12.2982 H       1  UNL1        0.0625
     55 H          18.1748   -9.3007  -11.0820 H       1  UNL1        0.0633
     56 H          17.4912   -9.5275   -8.7210 H       1  UNL1        0.0829
     57 H          15.7983   -5.6891   -8.7426 H       1  UNL1        0.0836
     58 H          14.8970   -0.2759   -9.7987 H       1  UNL1        0.0644
     59 H          10.9531   -0.8715   -8.0331 H       1  UNL1        0.0642
     60 H           8.1588    2.4180   -7.6872 H       1  UNL1        0.0644
     61 H           7.8430    4.4713   -8.3702 H       1  UNL1        0.1032
@<TRIPOS>BOND
     1     1     2    1
     2     2     3   ar
     3     3     4   ar
     4     4     5    1
     5     5     6   ar
     6     6     7   ar
     7     7     8    1
     8     8     9   am
     9     9    10    2
    10     9    11    1
    11    11    12   ar
    12    12    13   ar
    13    13    14   ar
    14    14    15    1
    15    14    16   ar
    16    16    17    1
    17    17    18    1
    18    18    19   ar
    19    19    20   ar
    20    20    21   ar
    21    21    22   ar
    22    22    23    1
    23    23    24   ar
    24    24    25   ar
    25    25    26   ar
    26    26    27   ar
    27    27    28   ar
    28    22    29   ar
    29    16    30   ar
    30     7    31   ar
    31    31    32   ar
    32    32    33    1
    33    33    34    1
    34    33    35    1
    35    33    36    1
    36    32    37   ar
    37     4    38   ar
    38    38    39   ar
    39    39     2   ar
    40    37     5   ar
    41    30    11   ar
    42    29    18   ar
    43    28    23   ar
    44     1    40    1
    45     1    41    1
    46     1    42    1
    47     3    43    1
    48     6    44    1
    49     8    45    1
    50    12    46    1
    51    13    47    1
    52    15    48    1
    53    15    49    1
    54    15    50    1
    55    17    51    1
    56    20    52    1
    57    21    53    1
    58    24    54    1
    59    25    55    1
    60    26    56    1
    61    28    57    1
    62    30    58    1
    63    31    59    1
    64    37    60    1
    65    38    61    1
