@<TRIPOS>MOLECULE
*****
 64 69 0 0 0
SMALL
GASTEIGER

@<TRIPOS>ATOM
      1 C          16.0330   13.2630   -5.4060 C.3     1  UNL1        0.0302
      2 N          14.8380   12.7780   -6.0520 N.ar    1  UNL1       -0.2739
      3 C          14.3910   11.4880   -6.0920 C.ar    1  UNL1        0.0329
      4 C          13.2200   11.5170   -6.8130 C.ar    1  UNL1        0.0211
      5 C          12.3280   10.4200   -7.1590 C.ar    1  UNL1        0.0053
      6 C          12.6290    9.0410   -7.0060 C.ar    1  UNL1       -0.0236
      7 C          11.5360    8.3250   -7.4600 C.ar    1  UNL1        0.1058
      8 C          11.2160    6.9250   -7.5640 C.ar    1  UNL1        0.1488
      9 N          12.0840    5.8760   -7.2730 N.pl3   1  UNL1       -0.3105
     10 C          13.5400    5.9690   -7.4910 C.3     1  UNL1        0.0294
     11 C          14.1700    4.6410   -7.9740 C.3     1  UNL1        0.0307
     12 N          13.8570    3.5460   -7.0580 N.pl3   1  UNL1       -0.2967
     13 C          14.5090    2.3410   -7.2310 C.ar    1  UNL1        0.2178
     14 N          13.7870    1.2500   -7.5340 N.ar    1  UNL1       -0.2224
     15 C          14.4470    0.0820   -7.7180 C.ar    1  UNL1        0.0379
     16 C          15.8160   -0.0650   -7.6360 C.ar    1  UNL1        0.0128
     17 C          16.5420   -1.3970   -7.7960 C.3     1  UNL1        0.0675
     18 C          17.9540   -1.1930   -7.1930 C.3     1  UNL1       -0.0385
     19 N          15.9260   -2.4620   -6.9760 N.3     1  UNL1       -0.3176
     20 C          16.5540   -1.8930   -9.2600 C.ar    1  UNL1       -0.0232
     21 C          16.8530   -3.2480   -9.5390 C.ar    1  UNL1       -0.0538
     22 C          16.8900   -3.7290  -10.8500 C.ar    1  UNL1       -0.0261
     23 C          16.6280   -2.8650  -11.9020 C.ar    1  UNL1        0.1234
     24 F          16.6640   -3.3230  -13.1600 F       1  UNL1       -0.2055
     25 C          16.3300   -1.5310  -11.6660 C.ar    1  UNL1       -0.0261
     26 C          16.2960   -1.0450  -10.3550 C.ar    1  UNL1       -0.0538
     27 C          16.4620    1.1090   -7.3080 C.ar    1  UNL1        0.0379
     28 N          15.8450    2.2960   -7.1120 N.ar    1  UNL1       -0.2224
     29 C          12.5360    3.5520   -6.4240 C.3     1  UNL1        0.0307
     30 C          11.5560    4.5020   -7.1470 C.3     1  UNL1        0.0294
     31 N          10.0050    6.6350   -7.9550 N.ar    1  UNL1       -0.2169
     32 C           9.1270    7.6350   -8.2840 C.ar    1  UNL1        0.1388
     33 N           9.3470    8.9110   -8.2530 N.ar    1  UNL1       -0.1548
     34 N          10.5770    9.2270   -7.8260 N.ar    1  UNL1       -0.2346
     35 C          11.0550   10.5000   -7.6750 C.ar    1  UNL1        0.0378
     36 C          13.0510   12.8720   -7.1630 C.ar    1  UNL1        0.0571
     37 N          14.0400   13.6450   -6.7010 N.ar    1  UNL1       -0.1793
     38 H          15.9064   13.2116   -4.3145 H       1  UNL1        0.0473
     39 H          16.8897   12.6414   -5.7054 H       1  UNL1        0.0473
     40 H          16.2142   14.3058   -5.7054 H       1  UNL1        0.0473
     41 H          14.8694   10.6065   -5.6402 H       1  UNL1        0.0832
     42 H          13.5606    8.6193   -6.6007 H       1  UNL1        0.0646
     43 H          13.7313    6.7428   -8.2491 H       1  UNL1        0.0480
     44 H          14.0003    6.2162   -6.5230 H       1  UNL1        0.0480
     45 H          13.7757    4.3984   -8.9718 H       1  UNL1        0.0480
     46 H          15.2624    4.7652   -8.0094 H       1  UNL1        0.0480
     47 H          13.8495   -0.8122   -7.9490 H       1  UNL1        0.0834
     48 H          17.8887   -1.2024   -6.0950 H       1  UNL1        0.0254
     49 H          18.6165   -2.0048   -7.5279 H       1  UNL1        0.0254
     50 H          18.3596   -0.2269   -7.5279 H       1  UNL1        0.0254
     51 H          14.9140   -2.4290   -7.1070 H       1  UNL1        0.1193
     52 H          16.0760   -2.2550   -5.9900 H       1  UNL1        0.1193
     53 H          17.0605   -3.9364   -8.7065 H       1  UNL1        0.0622
     54 H          17.1253   -4.7855  -11.0461 H       1  UNL1        0.0646
     55 H          16.1207   -0.8561  -12.5090 H       1  UNL1        0.0646
     56 H          16.0643    0.0154  -10.1762 H       1  UNL1        0.0622
     57 H          17.5560    1.0771   -7.1982 H       1  UNL1        0.0834
     58 H          12.1253    2.5318   -6.4476 H       1  UNL1        0.0480
     59 H          12.6552    3.9069   -5.3897 H       1  UNL1        0.0480
     60 H          11.3606    4.1061   -8.1545 H       1  UNL1        0.0480
     61 H          10.6367    4.5527   -6.5451 H       1  UNL1        0.0480
     62 H           8.1252    7.3189   -8.6103 H       1  UNL1        0.1066
     63 H          10.5156   11.4261   -7.9229 H       1  UNL1        0.0836
     64 H          12.2014   13.2510   -7.7500 H       1  UNL1        0.0854
@<TRIPOS>BOND
     1     1     2    1
     2     2     3   ar
     3     3     4   ar
     4     4     5    1
     5     5     6   ar
     6     6     7   ar
     7     7     8   ar
     8     8     9    1
     9     9    10    1
    10    10    11    1
    11    11    12    1
    12    12    13    1
    13    13    14   ar
    14    14    15   ar
    15    15    16   ar
    16    16    17    1
    17    17    18    1
    18    17    19    1
    19    17    20    1
    20    20    21   ar
    21    21    22   ar
    22    22    23   ar
    23    23    24    1
    24    23    25   ar
    25    25    26   ar
    26    16    27   ar
    27    27    28   ar
    28    12    29    1
    29    29    30    1
    30     8    31   ar
    31    31    32   ar
    32    32    33   ar
    33    33    34   ar
    34    34    35   ar
    35     4    36   ar
    36    36    37   ar
    37    37     2   ar
    38    35     5   ar
    39    34     7   ar
    40    30     9    1
    41    28    13   ar
    42    26    20   ar
    43     1    38    1
    44     1    39    1
    45     1    40    1
    46     3    41    1
    47     6    42    1
    48    10    43    1
    49    10    44    1
    50    11    45    1
    51    11    46    1
    52    15    47    1
    53    18    48    1
    54    18    49    1
    55    18    50    1
    56    19    51    1
    57    19    52    1
    58    21    53    1
    59    22    54    1
    60    25    55    1
    61    26    56    1
    62    27    57    1
    63    29    58    1
    64    29    59    1
    65    30    60    1
    66    30    61    1
    67    32    62    1
    68    35    63    1
    69    36    64    1
