@<TRIPOS>MOLECULE
*****
   64    69     1     0     0
SMALL
bcc


@<TRIPOS>ATOM
      1 C           16.0330    13.2630    -5.4060 c3         1 UNL       0.041600
      2 N           14.8380    12.7780    -6.0520 na         1 UNL       0.085400
      3 C1          14.3910    11.4880    -6.0920 cc         1 UNL      -0.137300
      4 C2          13.2200    11.5170    -6.8130 cd         1 UNL      -0.190100
      5 C3          12.3280    10.4200    -7.1590 cd         1 UNL      -0.041200
      6 C4          12.6290     9.0410    -7.0060 cd         1 UNL      -0.139000
      7 C5          11.5360     8.3250    -7.4600 cc         1 UNL      -0.253600
      8 C6          11.2160     6.9250    -7.5640 cc         1 UNL       0.729200
      9 N1          12.0840     5.8760    -7.2730 nh         1 UNL      -0.750300
     10 C7          13.5400     5.9690    -7.4910 c3         1 UNL       0.184300
     11 C8          14.1700     4.6410    -7.9740 c3         1 UNL       0.201800
     12 N2          13.8570     3.5460    -7.0580 nh         1 UNL      -0.755300
     13 C9          14.5090     2.3410    -7.2310 ca         1 UNL       0.880900
     14 N3          13.7870     1.2500    -7.5340 nb         1 UNL      -0.749500
     15 C10         14.4470     0.0820    -7.7180 ca         1 UNL       0.472700
     16 C11         15.8160    -0.0650    -7.6360 ca         1 UNL      -0.420900
     17 C12         16.5420    -1.3970    -7.7960 c3         1 UNL       0.298800
     18 C13         17.9540    -1.1930    -7.1930 c3         1 UNL      -0.087100
     19 N4          15.9260    -2.4620    -6.9760 n3         1 UNL      -0.899800
     20 C14         16.5540    -1.8930    -9.2600 ca         1 UNL      -0.099300
     21 C15         16.8530    -3.2480    -9.5390 ca         1 UNL      -0.093000
     22 C16         16.8900    -3.7290   -10.8500 ca         1 UNL      -0.171000
     23 C17         16.6280    -2.8650   -11.9020 ca         1 UNL       0.125900
     24 F           16.6640    -3.3230   -13.1600 f          1 UNL      -0.140900
     25 C18         16.3300    -1.5310   -11.6660 ca         1 UNL      -0.171000
     26 C19         16.2960    -1.0450   -10.3550 ca         1 UNL      -0.093000
     27 C20         16.4620     1.1090    -7.3080 ca         1 UNL       0.472700
     28 N5          15.8450     2.2960    -7.1120 nb         1 UNL      -0.749500
     29 C21         12.5360     3.5520    -6.4240 c3         1 UNL       0.201800
     30 C22         11.5560     4.5020    -7.1470 c3         1 UNL       0.184300
     31 N6          10.0050     6.6350    -7.9550 nd         1 UNL      -0.783000
     32 C23          9.1270     7.6350    -8.2840 cd         1 UNL       0.624900
     33 N7           9.3470     8.9110    -8.2530 nc         1 UNL      -0.536800
     34 N8          10.5770     9.2270    -7.8260 na         1 UNL       0.209200
     35 C24         11.0550    10.5000    -7.6750 cc         1 UNL      -0.106100
     36 C25         13.0510    12.8720    -7.1630 cd         1 UNL       0.306200
     37 N9          14.0400    13.6450    -6.7010 nc         1 UNL      -0.506800
     38 H           15.9060    13.2120    -4.3140 h1         1 UNL       0.057700
     39 H1          16.8900    12.6410    -5.7050 h1         1 UNL       0.057700
     40 H2          16.2140    14.3060    -5.7050 h1         1 UNL       0.057700
     41 H3          14.8690    10.6070    -5.6400 h4         1 UNL       0.174000
     42 H4          13.5610     8.6190    -6.6010 ha         1 UNL       0.155000
     43 H5          13.7310     6.7430    -8.2490 h1         1 UNL       0.067950
     44 H6          14.0000     6.2160    -6.5230 h1         1 UNL       0.067950
     45 H7          13.7760     4.3980    -8.9720 h1         1 UNL       0.069450
     46 H8          15.2620     4.7650    -8.0090 h1         1 UNL       0.069450
     47 H9          13.8500    -0.8120    -7.9490 h4         1 UNL       0.031100
     48 H10         17.8890    -1.2020    -6.0950 hc         1 UNL       0.046367
     49 H11         18.6160    -2.0050    -7.5280 hc         1 UNL       0.046367
     50 H12         18.3600    -0.2270    -7.5280 hc         1 UNL       0.046367
     51 H13         14.9140    -2.4290    -7.1070 hn         1 UNL       0.354300
     52 H14         16.0760    -2.2550    -5.9900 hn         1 UNL       0.354300
     53 H15         17.0610    -3.9360    -8.7070 ha         1 UNL       0.148500
     54 H16         17.1250    -4.7850   -11.0460 ha         1 UNL       0.149000
     55 H17         16.1210    -0.8560   -12.5090 ha         1 UNL       0.149000
     56 H18         16.0640     0.0150   -10.1760 ha         1 UNL       0.148500
     57 H19         17.5560     1.0770    -7.1980 h4         1 UNL       0.031100
     58 H20         12.1250     2.5320    -6.4480 h1         1 UNL       0.069450
     59 H21         12.6550     3.9070    -5.3900 h1         1 UNL       0.069450
     60 H22         11.3610     4.1060    -8.1550 h1         1 UNL       0.067950
     61 H23         10.6370     4.5530    -6.5450 h1         1 UNL       0.067950
     62 H24          8.1250     7.3190    -8.6100 h5         1 UNL       0.064100
     63 H25         10.5160    11.4260    -7.9230 h4         1 UNL       0.189000
     64 H26         12.2010    13.2510    -7.7500 h4         1 UNL       0.043100
@<TRIPOS>BOND
     1     1     2 1   
     2     2     3 1   
     3     3     4 2   
     4     4     5 1   
     5     5     6 1   
     6     6     7 2   
     7     7     8 1   
     8     8     9 1   
     9     9    10 1   
    10    10    11 1   
    11    11    12 1   
    12    12    13 1   
    13    13    14 ar  
    14    14    15 ar  
    15    15    16 ar  
    16    16    17 1   
    17    17    18 1   
    18    17    19 1   
    19    17    20 1   
    20    20    21 ar  
    21    21    22 ar  
    22    22    23 ar  
    23    23    24 1   
    24    23    25 ar  
    25    25    26 ar  
    26    16    27 ar  
    27    27    28 ar  
    28    12    29 1   
    29    29    30 1   
    30     8    31 2   
    31    31    32 1   
    32    32    33 2   
    33    33    34 1   
    34    34    35 1   
    35     4    36 1   
    36    36    37 2   
    37    37     2 1   
    38    35     5 2   
    39    34     7 1   
    40    30     9 1   
    41    28    13 ar  
    42    26    20 ar  
    43     1    38 1   
    44     1    39 1   
    45     1    40 1   
    46     3    41 1   
    47     6    42 1   
    48    10    43 1   
    49    10    44 1   
    50    11    45 1   
    51    11    46 1   
    52    15    47 1   
    53    18    48 1   
    54    18    49 1   
    55    18    50 1   
    56    19    51 1   
    57    19    52 1   
    58    21    53 1   
    59    22    54 1   
    60    25    55 1   
    61    26    56 1   
    62    27    57 1   
    63    29    58 1   
    64    29    59 1   
    65    30    60 1   
    66    30    61 1   
    67    32    62 1   
    68    35    63 1   
    69    36    64 1   
@<TRIPOS>SUBSTRUCTURE
     1 UNL         1 TEMP              0 ****  ****    0 ROOT
